29
chhgc.log: Geometry 1
C     -2.932684    1.038914   -0.017535
C     -2.031336   -0.033064   -0.001900
N     -0.730146    0.416840   -0.009759
C     -0.828332    1.746385   -0.032002
N     -2.138837    2.161566   -0.038442
N     -4.301298    1.015397   -0.028928
C     -4.759600   -0.216844    0.011766
N     -3.966125   -1.342289    0.042718
C     -2.537016   -1.388642    0.037001
O     -1.943282   -2.457129    0.072716
N     -6.129490   -0.442431    0.099502
H      0.035315    2.413420   -0.043065
H     -4.410586   -2.253177    0.152169
H     -6.633928    0.418990   -0.105124
H     -6.458116   -1.201475   -0.495914
H     -2.471748    3.120949   -0.052426
C      2.515327   -1.598076    0.105386
C      3.873605   -1.792439    0.137902
C      4.672548   -0.597307    0.098268
N      4.185857    0.631037    0.034753
C      2.811792    0.815545    0.019574
N      2.010337   -0.343584    0.048263
O      2.274344    1.923810   -0.027057
N      6.048471   -0.716418    0.190464
H      1.782689   -2.411542    0.126658
H      4.310385   -2.790009    0.202700
H      6.525765    0.137283   -0.091370
H      6.442278   -1.557647   -0.220587
H      0.982810   -0.190062    0.026270