26
cwhcc.log: Geometry 1
N     -4.0624512403   -0.9791996850   -0.0071333244
C     -2.7283134053   -1.1760862632   -0.4505229553
O     -2.4150279092   -2.2461205789   -0.9516341778
N     -1.8662842441   -0.1046238999   -0.2786539827
C     -2.2929131559    1.0206365465    0.2889939540
N     -1.3771625854    2.0089055341    0.4817908812
C     -3.6495149582    1.2204100959    0.7442612149
C     -4.5084700363    0.1708890678    0.5656690339
H     -0.4910987309    1.9086159657   -0.0216724415
H     -3.9786283857    2.1508052094    1.2090039196
H     -5.5602176607    0.1996016414    0.8646182051
H     -1.7130721128    2.9468889694    0.6636156685
H     -4.6840070789   -1.7714106847   -0.1472433473
N      3.8620345990   -0.7180040459    0.9629630479
C      4.1704117940    0.1209237804   -0.1410038245
O      5.3407257124    0.3850090636   -0.3772269982
N      3.0878888769    0.5781718807   -0.8815642151
C      1.8649268010    0.2346873339   -0.5229819210
N      0.8150804095    0.7710597017   -1.2494120826
C      1.5341286314   -0.6112636166    0.5988955498
C      2.5983337729   -1.0798823106    1.3197598614
H     -0.0467204634    0.2117364725   -1.2385874491
H      0.5017725373   -0.8777471949    0.8284551869
H      2.4984151580   -1.7431239256    2.1839094242
H      1.1118599689    1.1078651618   -2.1641846005
H      4.6693042365   -1.0547444136    1.4808851002