30
cwwaa.log: Geometry 1
N     -5.0884209241   -1.4047169187   -0.3090180204
C     -5.9097419414   -0.3009493516   -0.3335438291
N     -5.2622586325    0.8550731724   -0.1935398500
C     -3.9418073619    0.4580632909   -0.0738407867
C     -2.7479556437    1.1930086436    0.1168056558
N     -2.7424384761    2.5661446174    0.1361505246
N     -1.5894316098    0.5206520828    0.2255683309
C     -1.6057049258   -0.8409625254    0.1446371326
N     -2.6597341989   -1.6506372172   -0.0364971280
C     -3.7993384494   -0.9412973979   -0.1372801266
H     -6.9891008242   -0.3969043481   -0.4579260709
H     -3.6415077910    2.9862020520    0.3571467604
H     -0.6199737974   -1.3096497281    0.2477185570
H     -5.3648834784   -2.3779762045   -0.3940737796
H     -1.9497893841    2.9789730351    0.6203427716
N      5.6759146545   -0.1880970928   -0.3085043535
C      5.5640048992    1.1797960102   -0.4101286282
N      4.3237894607    1.6314044336   -0.2289969470
C      3.6001458464    0.4734509990    0.0033040378
C      2.2200912826    0.2585646626    0.2599698504
N      1.3460413568    1.2905061963    0.3823972456
N      1.7918842622   -1.0107315863    0.4305070006
C      2.7022898657   -2.0143699059    0.3576516137
N      4.0248281981   -1.9549792656    0.1304145871
C      4.4106767313   -0.6750434449   -0.0422626351
H      6.4304693690    1.8082402794   -0.6202797748
H      0.3412040565    1.0810682090    0.3272734234
H      2.2902532592   -3.0196275044    0.5052392823
H      6.5184478577   -0.7446448104   -0.4111619083
H      1.6690464117    2.1784394269    0.0119270424