29
cwwgc.log: Geometry 15
N     -4.3166240000    0.9133370000   -0.1963250000
C     -2.9185540000    1.0713160000   -0.1351210000
O     -2.4480200000    2.2100410000   -0.2253050000
N     -2.1667490000   -0.0651130000    0.0208350000
C     -2.7516270000   -1.2691860000    0.0902040000
N     -1.9582270000   -2.3406580000    0.2310150000
C     -4.1886160000   -1.4348810000    0.0320670000
C     -4.9340780000   -0.2992570000   -0.1139160000
H     -0.9257770000   -2.2348330000    0.1754840000
H     -4.6613200000   -2.4160070000    0.0976060000
H     -6.0259350000   -0.3016930000   -0.1722760000
H     -4.8493400000    1.7713200000   -0.3092670000
H     -2.3682370000   -3.2655950000    0.2214870000
N      4.6592520000    0.4860300000   -0.1099140000
C      4.9584310000   -0.8591290000   -0.1928360000
N      3.8827440000   -1.6387710000   -0.1573110000
C      2.8369430000   -0.7390110000   -0.0443070000
C      1.4154650000   -0.9649640000    0.0331690000
O      0.8038180000   -2.0448910000    0.0169350000
N      0.7237080000    0.2549650000    0.1373430000
C      1.2846710000    1.5127530000    0.1717360000
N      0.4150390000    2.5509190000    0.3658630000
N      2.5867950000    1.7494850000    0.0917900000
C      3.2913490000    0.5898820000   -0.0121280000
H      5.9867150000   -1.2113610000   -0.2784450000
H      0.8239180000    3.4526640000    0.1425330000
H     -0.3142390000    0.1761660000    0.1539400000
H     -0.5665660000    2.4260270000    0.0917780000
H      5.3089320000    1.2656150000   -0.1121660000