31
thhag.log: Geometry 1
N     -0.3852488076    0.0299029183   -0.0776794491
C      0.8237156988   -0.0624680304    0.5257408744
N      1.7157309434    0.9004027631    0.8203291161
C      1.2481141525    2.0994234692    0.4198053946
C      0.0239594225    2.3712490130   -0.2185842690
C     -0.8144329655    1.2511098392   -0.4696540228
N     -1.9934806263    1.3617671160   -1.1276132730
N     -0.1367951865    3.7232470359   -0.4788889663
C      0.9856575874    4.2581772724   -0.0021035784
N      1.8500879719    3.3374361760    0.5455107106
H      2.7561894661    3.5179850771    0.9645921013
H      1.1145162348   -1.0788620138    0.8189587541
H     -2.6547752396    0.5888006454   -1.0235880952
H      1.2280512993    5.3215051525   -0.0277674477
H     -2.4245553171    2.2823306607   -1.1564779137
N     -6.7860433603    2.6089790628   -0.0637322140
C     -7.8479081052    1.8839203453    0.4277195406
N     -8.9476686833    2.6259297688    0.8404417380
N     -7.8452298051    0.5773883048    0.5805515382
C     -6.6462897940    0.0354542286    0.2058035966
C     -5.5085694484    0.6644339925   -0.3196663281
C     -5.5196799573    2.1035964403   -0.4882011790
O     -4.6576007909    2.8700432075   -0.8996092919
N     -4.5066310374   -0.2480289017   -0.5841821126
C     -5.0295306223   -1.4165140336   -0.2213162248
N     -6.3148127110   -1.2971380290    0.2570399050
H     -6.9161638409   -2.0425212776    0.5953447142
H     -6.8470143035    3.6266876549   -0.0745248290
H     -9.2051327213    3.3748255392    0.1993854613
H     -4.5194015432   -2.3774817535   -0.2827821185
H     -9.7390504112    2.0084151031    1.0151478176