32
thhgg.log: Geometry 28
C     -2.568601   -0.018651   -0.033372
C     -3.384986    1.124331    0.047305
N     -2.633334    2.281173    0.055247
C     -1.378478    1.833267   -0.022428
N     -1.286937    0.462305   -0.078780
N     -2.932664   -1.343207   -0.080294
C     -4.234124   -1.485027   -0.003648
N     -5.126863   -0.443118    0.092207
C     -4.822468    0.957359    0.127175
O     -5.726781    1.775763    0.222732
N     -4.796762   -2.766627    0.051605
H     -0.477823    2.444675   -0.041789
H     -6.113970   -0.653665    0.231781
H     -4.074748   -3.445362   -0.189934
H     -5.585906   -2.869614   -0.587291
H     -0.423770   -0.092633   -0.137782
O      1.150502   -1.125501   -0.193864
C      2.286434   -0.659492   -0.113068
C      2.739138    0.710391   -0.054599
C      4.118124    0.958433    0.017450
N      5.157565    0.071932    0.069026
C      4.732678   -1.171379    0.009696
N      3.405534   -1.532272   -0.077235
N      4.221595    2.327090    0.046214
C      2.940682    2.832036   -0.010336
N      2.010525    1.882509   -0.073124
N      5.646009   -2.215052   -0.042452
H      2.743683    3.903986   -0.002283
H      3.166812   -2.517098   -0.190925
H      6.576303   -1.879923    0.202649
H      5.388055   -3.023496    0.521284
H      5.088576    2.853869    0.097830