28
twwgu.log: Geometry 1
C     -3.525160    0.159144   -0.028644
C     -2.617777   -0.913143    0.024495
N     -3.264618   -2.134209   -0.015605
C     -4.549661   -1.802553   -0.090358
N     -4.760081   -0.438983   -0.102791
N     -3.289836    1.504393   -0.021906
C     -1.996751    1.752801    0.063394
N     -1.019792    0.792178    0.123830
C     -1.208999   -0.603830    0.096740
O     -0.237106   -1.368847    0.131869
N     -1.548106    3.057491    0.169896
H     -5.378492   -2.509161   -0.138184
H     -0.032486    1.105851    0.163646
H     -2.231240    3.723108   -0.182164
H     -0.607888    3.214454   -0.188268
H     -5.648702    0.049131   -0.151487
N      2.439156   -0.424814    0.045660
C      3.451077   -1.382719    0.020917
N      4.734156   -0.825282   -0.053151
C      4.980881    0.522752   -0.100077
C      3.964490    1.429620   -0.075479
C      2.587532    0.956157    0.004025
O      3.263568   -2.584364    0.058815
O      1.606294    1.716823    0.035065
H      6.033261    0.814493   -0.156951
H      4.149069    2.502788   -0.110377
H      1.469301   -0.809468    0.093950
H      5.491909   -1.500812   -0.071860