25
twwuc.log: Geometry 1
C     -4.1953660651    0.0814810414    0.0462217106
C     -3.6584636074   -1.1234179405   -0.2824610596
C     -2.1996080157   -1.2821140672   -0.3608810152
N     -1.4846406035   -0.1078474948   -0.0269972060
C     -2.0046230572    1.1255791577    0.2746514599
N     -3.3934089586    1.1715370743    0.3130616580
O     -1.3353485083    2.1394695744    0.4982137493
O     -1.6184439288   -2.3088912875   -0.6799948428
H     -5.2724877458    0.2566791090    0.1148638036
H     -4.2869338071   -1.9875061387   -0.4994946233
H     -0.4410711414   -0.1707089812    0.0012421248
H     -3.7894412296    2.0791100023    0.5329431633
N      1.3850628361    2.2316252379   -0.4650809412
C      2.0999361648    1.1035261088   -0.2268034636
N      1.4263482591    0.0070373320    0.1127916675
C      2.0911274754   -1.1841549057    0.3617080547
N      3.5002313756   -1.1580751344    0.1826718962
C      4.1973847565   -0.0470790883   -0.1763655225
C      3.5365493493    1.1302039404   -0.3929261239
O      1.5506148822   -2.2195112502    0.7184961109
H      5.2816699395   -0.1528787364   -0.2751415367
H      4.0710957063    2.0355572608   -0.6839101371
H      0.4162716751    2.2526837963   -0.1197661959
H      1.8881900561    3.1097098850   -0.5001139009
H      3.9713540674   -2.0410148534    0.3600712550