28
cwhug.log: Geometry 1
N     -4.5585381739   -1.0047469826   -0.0178269675
C     -3.1664973355   -1.0953354796   -0.0208236967
O     -2.6013725563   -2.1863186753   -0.0368400717
N     -2.5294787328    0.1268982754   -0.0042483697
C     -3.1209392976    1.4088845811    0.0195308225
O     -2.4344607574    2.4215494730    0.0354159183
C     -4.5895758094    1.3808402031    0.0234235321
C     -5.2451365569    0.1896655168    0.0050490193
H     -5.1279180358    2.3286520578    0.0419286889
H     -6.3358177406    0.1099229475    0.0076462735
H     -1.4900190281    0.0879232104   -0.0048057967
H     -5.0461773684   -1.8939987396   -0.0297658338
N      1.7837092569   -2.2428601780    0.0213393239
C      0.4669441706   -1.8500892616    0.0160908554
N      0.3377470622   -0.5226775160    0.0054866732
C      1.6344176549   -0.0490593070    0.0039302266
C      2.1287521852    1.3148797150   -0.0222186454
O      1.5371475082    2.3809834127   -0.0485734950
N      3.5639872672    1.2791820781   -0.0276456112
C      4.3700232158    0.1658883385   -0.0087456818
N      5.7384987933    0.4046646961   -0.0971845610
N      3.9244881283   -1.0710753373    0.0221782890
C      2.5555991927   -1.1058747489    0.0112814734
H     -0.3747125321   -2.5423398065    0.0184896582
H      6.2497685345   -0.4527355439    0.1073036781
H      2.1364145458   -3.1948861441    0.0268031263
H      6.0589653763    1.1646863051    0.5014272750
H      3.9951810429    2.1973770729   -0.1286461336