27
thhua.log: Geometry 1
N     -0.0371533430   -0.0259269178    0.0099749382
C      1.3555026873   -0.0040283138    0.0052420897
O      2.0114985133    1.0238637513   -0.0028478884
N      1.9045675888   -1.2820895215    0.0096340104
C      1.2482339377   -2.5262582930    0.0181388900
O      1.9056555419   -3.5658378000    0.0112334711
C     -0.2105292791   -2.4197441735    0.0354525295
C     -0.7839671260   -1.1843184678    0.0298886945
H     -1.8681428997   -1.0429758741    0.0412522049
H     -0.4821280832    0.8862628993    0.0090669885
H      2.9234502859   -1.3142959150    0.0035662566
H     -0.8168684898   -3.3296863772    0.0601281204
N     -4.0404943248   -8.1524356581    0.7287650525
C     -3.1460205107   -9.1716897262    0.7995562271
N     -1.8064000804   -9.1340295816    0.7089775542
C     -1.3793679422   -7.8711535006    0.5221519337
C     -2.1717492712   -6.7093849351    0.4318572451
C     -3.5684545208   -6.9075680827    0.5503010359
N     -4.4545230810   -5.8553211105    0.5476909241
N     -1.4005770900   -5.5776681298    0.2286092979
C     -0.1521259174   -6.0514795212    0.2016032862
N     -0.0860838796   -7.4132784780    0.3722980932
H      0.7542620832   -7.9827488874    0.3876038031
H     -3.5866734556  -10.1639815610    0.9481789239
H     -5.4090434653   -6.1298819492    0.3299301736
H      0.7378117298   -5.4301422374    0.0716868263
H     -4.1266776745   -5.0281927722    0.0570588017