27
twwua.log: Geometry 1
C      4.8824586185   -0.1128911459    0.0000000000
C      4.3545325162    1.1414446858    0.0000000000
C      2.8979106741    1.3164707037    0.0000000000
N      2.1819433262    0.1063915375    0.0000000000
C      2.6871755835   -1.1702287106    0.0000000000
N      4.0772023231   -1.2319970876    0.0000000000
O      2.0008248094   -2.1948533339    0.0000000000
O      2.3122492376    2.3952040958    0.0000000000
H      5.9589752977   -0.3044880342    0.0000000000
H      4.9899577245    2.0273185310    0.0000000000
H      1.1310118034    0.1819201284    0.0000000000
H      4.4716084260   -2.1668379137    0.0000000000
N     -0.9571074680   -2.0132063771    0.0000000000
C     -1.4666091436   -0.7660981470    0.0000000000
C     -2.8630281986   -0.5081521650    0.0000000000
C     -3.2455131596    0.8450723991    0.0000000000
N     -2.4416282615    1.9296767662    0.0000000000
C     -1.1554277999    1.5579556272    0.0000000000
N     -0.6364373675    0.3007393564    0.0000000000
N     -4.6253909287    0.8055344624    0.0000000000
C     -4.9888525066   -0.5215362189    0.0000000000
N     -3.9530748728   -1.3600446116    0.0000000000
H     -6.0360367079   -0.8261915982    0.0000000000
H     -0.4026390574    2.3549321275    0.0000000000
H     -1.6014275547   -2.7932193245    0.0000000000
H      0.0557393144   -2.1596114853    0.0000000000
H     -5.2424168010    1.6116958454    0.0000000000