28
thhac.log: Geometry 1
C      0.0867154361    0.0549694093    0.1145048864
C      1.4937850388    0.0360603614    0.0705759291
N      2.0134334641    1.3233279178    0.0414073460
C      0.9306949325    2.1032079280    0.0679625372
N     -0.2428588115    1.3979057424    0.1119516371
N     -0.7472941761   -1.0000847648    0.1528112057
C     -0.0463821201   -2.1465985459    0.1419938239
N      1.2948155633   -2.3337293412    0.1019849497
C      2.0983025884   -1.2517014050    0.0700915853
N      3.4456516094   -1.4352223409    0.0934390514
H      0.9503039837    3.1933908176    0.0555328464
H     -0.6401766534   -3.0674975320    0.1664342269
H      4.0519872652   -0.6756896835   -0.2256245040
H      3.7499450489   -2.3868370079   -0.0895633284
H     -1.1846683545    1.7772055106    0.1370388166
N      4.9540918280    1.1880227555   -0.4636616322
C      5.7165972708    1.3594041389    0.6799103104
N      7.0093972269    1.5725032580    0.5217542262
C      7.8280078931    1.6745696721    1.6399660881
N      7.1817280779    1.5528896057    2.8994446538
C      5.8462029943    1.3405064023    3.0568852699
C      5.0469460558    1.2278039201    1.9518600210
O      9.0349069972    1.8642398668    1.6073903938
H      5.4738437742    1.2648562328    4.0826392286
H      3.9737487954    1.0499559203    2.0210825656
H      5.4430520816    1.5047364928   -1.2999980872
H      3.9762200514    1.4962181290   -0.3841999286
H      7.7969951442    1.6375855020    3.7043843573