30
thhaa.log: Geometry 1
N     -3.5534665101   -1.8145063881   -0.6419527818
C     -4.7070963441   -1.2128774879   -0.2653788020
N     -4.9032276479    0.0149793721    0.2448809775
C     -3.7301378311    0.6672835127    0.3468584018
C     -2.4522996931    0.1968766085   -0.0101140554
C     -2.3970674189   -1.1289506342   -0.5207391300
N     -1.2408647857   -1.7065728025   -0.9345659332
N     -1.4780434345    1.1557918616    0.2225814976
C     -2.1633884094    2.1886170725    0.7163600938
N     -3.5098617955    1.9498800638    0.8138036037
H     -4.2223577470    2.5870783391    1.1561745429
H     -5.6086239027   -1.8235854738   -0.3921854412
H     -1.3201778745   -2.7016747769   -1.1234951999
H     -1.7228230967    3.1390585780    1.0198907986
H     -0.3503676029   -1.3807011955   -0.5384540919
N      3.5542352677    1.8144972844   -0.6409521457
C      4.7077731413    1.2122676422   -0.2650869277
N      4.9036767602   -0.0158889100    0.2445561978
C      3.7303480408   -0.6677120141    0.3468746688
C      2.4525496964   -0.1965934326   -0.0092716690
C      2.3975257413    1.1293939929   -0.5196178666
N      1.2415398554    1.7077485857   -0.9330414451
N      1.4779737703   -1.1550482636    0.2237877811
C      2.1630313462   -2.1883337794    0.7168738738
N      3.5096710890   -1.9503764114    0.8135013006
H      4.2218977902   -2.5879816414    1.1555621858
H      5.6094716114    1.8227495407   -0.3918698015
H      1.3218044745    2.7026486085   -1.1227154564
H      1.7219237984   -3.1385142536    1.0205063892
H      0.3503817105    1.3824464020   -0.5377715800