30
twhaa.log: Geometry 1
N     -5.297919   -0.197481    0.413055
C     -5.335167    1.110626   -0.013269
N     -4.145418    1.591836   -0.370942
C     -3.298077    0.518143   -0.160098
C     -1.896414    0.378389   -0.336675
N     -1.124709    1.369470   -0.843263
N     -1.336476   -0.812001   -0.022414
C     -2.134338   -1.807664    0.443802
N     -3.458048   -1.808127    0.654282
C     -3.982806   -0.608383    0.330276
H     -6.268781    1.673628   -0.043590
H     -1.563012    2.284653   -0.875512
H     -1.611407   -2.741733    0.682423
H     -0.113535    1.326440   -0.649589
H     -6.079218   -0.761697    0.732255
N      3.812372    2.000358    0.519691
C      2.500294    2.309670    0.274332
N      1.769633    1.255319   -0.091726
C      2.675380    0.203879   -0.077440
C      2.551686   -1.185726   -0.360686
N      1.391678   -1.756469   -0.767887
N      3.658899   -1.954071   -0.266678
C      4.825846   -1.373631    0.098241
N      5.082084   -0.090665    0.406666
C      3.959306    0.643612    0.297657
H      2.119025    3.326485    0.374769
H      0.492139   -1.317627   -0.522418
H      5.682731   -2.055234    0.154113
H      1.416834   -2.772068   -0.788505
H      4.549421    2.637068    0.806131