28
twhug.log: Geometry 1
N      4.4826166752    1.3329009034    0.0124189991
C      3.0810347768    1.3439289027    0.0140299990
O      2.4418258231    2.3820198274    0.0249699982
N      2.5250748170    0.0720249948    0.0023869998
C      3.1960697684   -1.1565419162   -0.0077319994
O      2.5840078128   -2.2262608387   -0.0146489989
C      4.6568276626   -1.0452889243   -0.0092789993
C      5.2381076205    0.1855069866    0.0005709999
H      5.2500296196   -1.9595528580   -0.0182749987
H      6.3224395419    0.3289239762   -0.0000890000
H      4.9161766438    2.2502028369    0.0192329986
H      1.4847768924    0.0337559975    0.0012649999
N     -1.7947138700   -2.2461838373    0.0065939995
C     -0.4749179656   -1.8640158649    0.0015809999
N     -0.3361699756   -0.5375539611   -0.0011899999
C     -1.6286168820   -0.0535249961    0.0025149998
C     -2.1115068470    1.3144009048   -0.0140239990
O     -1.5105458905    2.3756598279   -0.0366749973
N     -3.5465007431    1.2907989065   -0.0138429990
C     -4.3616676840    0.1838839867    0.0024799998
N     -5.7287885850    0.4356289684   -0.0755689945
N     -3.9264617155   -1.0568519234    0.0225419984
C     -2.5578888147   -1.1032619201    0.0057189996
H      0.3632319737   -2.5609328144   -0.0001480000
H     -6.2459775474   -0.4190679696    0.1256019909
H     -2.1544148439   -3.1956387685    0.0075249995
H     -3.9708937123    2.2129948397   -0.1065299923
H     -6.0377195626    1.1921009136    0.5337059613