27
twhua.log: Geometry 1
N     -0.053  -0.110   0.038
C      1.215   0.534   0.007
O      2.278  -0.039   0.011
N      1.184   1.943  -0.003
C      0.091   2.773   0.000
O      0.145   3.995  -0.002
C     -1.176   0.690   0.006
C     -1.188   2.032  -0.003
H     -2.111   2.614  -0.002
H      2.088   2.428  -0.003
H     -2.097   0.141   0.003
H     -0.204  -1.159   0.139
N      5.047   5.126  -0.378
C      5.884   4.056  -0.138
N      7.227   4.039  -0.071
N      6.989   1.650   0.403
C      5.645   1.715   0.325
N      4.928   0.564   0.547
C      3.769   4.622  -0.354
C      5.046   2.961   0.040
C      7.686   2.789   0.203
N      3.725   3.332  -0.097
H      8.765   2.678   0.277
H      2.902   5.244  -0.522
H      5.412  -0.302   0.716
H      3.915   0.562   0.453
H      5.278   6.107  -0.526