28
twwca.log: Geometry 1
C      5.0305132175    0.4018573845    0.0000000000
C      4.1071456465    1.4097143145    0.0000000000
C      2.7145934312    1.0110718645    0.0000000000
N      2.3295824863   -0.2659119196    0.0000000000
C      3.2572131030   -1.2873057647    0.0000000000
N      4.6205668484   -0.8965353284    0.0000000000
O      2.9729413113   -2.4793251542    0.0000000000
N      1.7516093722    1.9520232465    0.0000000000
H      6.1098098101    0.5794745884    0.0000000000
H      4.4127827727    2.4570958652    0.0000000000
H      0.7545121087    1.6685137515    0.0000000000
H      2.0074621007    2.9299880499    0.0000000000
H      5.2905564578   -1.6604508333    0.0000000000
N     -1.0666111810    1.0823862107    0.0000000000
C     -1.3989025836   -0.2357879868    0.0000000000
C     -2.7848999271   -0.5604159559    0.0000000000
C     -3.6854511372    0.5173082247    0.0000000000
N     -3.3895496400    1.8356579940    0.0000000000
C     -2.0610933671    2.0072393018    0.0000000000
N     -4.9304294712   -0.0791659638    0.0000000000
C     -4.7216593098   -1.4397793905    0.0000000000
N     -3.4341458215   -1.7823150562    0.0000000000
N     -0.4427862231   -1.1744029307    0.0000000000
H     -5.5539566907   -2.1445708959    0.0000000000
H     -1.7173330654    3.0493293419    0.0000000000
H     -0.7305619987   -2.1455416114    0.0000000000
H      0.5583863232   -0.9174845388    0.0000000000
H     -5.8222948759    0.4053328850    0.0000000000