32
twwgg.log: Geometry 1
C     -4.0950642443    0.4513782354    0.1617319021
C     -3.3488429577   -0.7303242178    0.0028464387
N     -4.1430569255   -1.8580091929    0.1036066895
C     -5.3572943005   -1.3619095501    0.3176563592
N     -5.3829748224    0.0173104235    0.3631585669
N     -3.6835341327    1.7503035100    0.1401446368
C     -2.3838101652    1.8283240867   -0.0866456294
N     -1.5571551116    0.7453911864   -0.2672586757
C     -1.9332577259   -0.6044236180   -0.2239225972
O     -1.0819975623   -1.5007599487   -0.3741233371
N     -1.7727168327    3.0539077513   -0.2255297747
H     -6.2629841541   -1.9546111439    0.4478713179
H     -0.5458204606    0.9583809958   -0.4123844130
H     -2.3018898951    3.8124550461    0.1939683996
H     -0.7720030083    3.0724721266   -0.0353083031
H     -6.1902300125    0.6158436431    0.5070561968
O      1.0919943152    1.5106298779   -0.3854885739
C      1.9407687321    0.6118611397   -0.2347943573
C      3.3572646263    0.7301286653   -0.0063188535
C      4.0945937366   -0.4561554004    0.1630431967
N      3.6758764835   -1.7528587112    0.1457285605
C      2.3771061018   -1.8236313189   -0.0884931466
N      1.5589464940   -0.7360982723   -0.2775588647
N      5.3843423899   -0.0301988082    0.3693684905
C      5.3690605232    1.3487670926    0.3155117150
N      4.1595353279    1.8524361256    0.0922967865
N      1.7581066480   -3.0452285009   -0.2273604133
H      6.2790330222    1.9349621752    0.4454816319
H      0.5465841466   -0.9443498571   -0.4201799931
H      2.2782426129   -3.8064059005    0.1985525801
H      0.7557125688   -3.0553954071   -0.0448493780
H      6.1854645823   -0.6341922336    0.5241927565