24
cwwuu.log: Geometry 1
N      2.9655590325   -1.6772354263    0.0000000000
C      1.7658366669   -0.9804879306    0.0000000000
O      0.6787235711   -1.5798730070    0.0000000000
N      1.8964770658    0.3880708462    0.0000000000
C      3.1011968024    1.1277343397    0.0000000000
O      3.0810519719    2.3583813927    0.0000000000
C      4.3101724035    0.3000737471    0.0000000000
C      4.2011593164   -1.0580451324    0.0000000000
H      5.2811569176    0.7932245949    0.0000000000
H      5.0656378266   -1.7244724113    0.0000000000
H      2.8787064383   -2.6874776039    0.0000000000
H      1.0053387994    0.9181801988    0.0000000000
N     -4.1944333991   -0.3222775101    0.0000000000
C     -3.0282765677   -1.0931706108    0.0000000000
O     -3.0533850379   -2.3202310890    0.0000000000
N     -1.8651670417   -0.3338806861    0.0000000000
C     -1.7671654817    1.0590751562    0.0000000000
O     -0.6569335266    1.6190452482    0.0000000000
C     -3.0397108358    1.7701351504    0.0000000000
C     -4.2015535371    1.0545288489    0.0000000000
H     -3.0361768161    2.8586205454    0.0000000000
H     -5.1863934266    1.5257766529    0.0000000000
H     -0.9726756508   -0.8599742664    0.0000000000
H     -5.0581455037   -0.8537210680    0.0000000000